%
% Auto-generated SU2 config (v8+ friendly)
MATH_PROBLEM= DIRECT
SOLVER= RANS
KIND_TURB_MODEL= SA

MESH_FILENAME= mesh.su2

% Freestream
MACH_NUMBER= 0.2
AOA= 2.0
SIDESLIP_ANGLE= 0.0
GAMMA_VALUE= 1.4
FREESTREAM_TEMPERATURE= 288.15
FREESTREAM_PRESSURE= 101325.0
REYNOLDS_NUMBER= 5000000.0
REYNOLDS_LENGTH= 1.0000002000000003

% Boundaries (from physical names)
MARKER_FAR= ( farfield )
MARKER_HEATFLUX= ( wall, 0.0 )

% Numerics
NUM_METHOD_GRAD= GREEN_GAUSS
CFL_NUMBER= 5.0
CFL_ADAPT= YES
CFL_ADAPT_PARAM= ( 0.5, 2.0, 1.1, 50.0 )
LINEAR_SOLVER= FGMRES
LINEAR_SOLVER_PREC= ILU
LINEAR_SOLVER_ERROR= 1e-6
LINEAR_SOLVER_ITER= 50
CONV_NUM_METHOD_FLOW= ROE
VENKAT_LIMITER_COEFF= 0.05
MUSCL_FLOW= YES
SLOPE_LIMITER_FLOW= VENKATAKRISHNAN

% Convergence & output
ITER= 800
CONV_RESIDUAL_MINVAL= 1e-10
CONV_STARTITER= 10
SCREEN_OUTPUT= (ITER, RMS_RES, LIFT, DRAG, MACH, AOA)
HISTORY_OUTPUT= (ITER, RMS_RES, CL, CD, CMZ)
CONV_FILENAME= history   % name for history file (history.csv by default)
WRT_CON_FREQ= 1          % write every iteration
